Version 4
SHEET 1 880 824
WIRE -480 -448 -544 -448
WIRE -544 -384 -544 -448
WIRE 336 -288 336 -336
WIRE 336 -288 -176 -288
WIRE 336 -208 336 -288
WIRE -64 -144 -64 -160
WIRE -16 -144 -64 -144
WIRE -64 -112 -64 -144
WIRE -800 -96 -800 -112
WIRE -560 -96 -800 -96
WIRE -288 -64 -336 -64
WIRE -176 -64 -176 -288
WIRE 336 -32 336 -128
WIRE 336 -32 48 -32
WIRE 528 -32 336 -32
WIRE 736 -32 528 -32
WIRE 736 32 736 -32
WIRE -560 80 -560 -32
WIRE -336 80 -336 -64
WIRE -336 80 -560 80
WIRE 736 160 736 112
WIRE -176 208 -176 0
WIRE -96 208 -176 208
WIRE 80 208 -16 208
WIRE 256 208 160 208
WIRE 448 208 336 208
WIRE 528 208 528 -32
WIRE -176 304 -176 272
FLAG -544 -448 3.3V
FLAG -544 -304 0
FLAG 336 -416 1.65V
FLAG -176 304 1.65V
FLAG -64 48 0
FLAG -64 -160 3.3V
FLAG -288 -64 1.65V
FLAG -800 -16 0
FLAG -800 -192 3.3V
FLAG -16 -80 0
FLAG -480 -384 0
FLAG -448 16 0
FLAG -448 -144 3.3V
FLAG 736 224 0
SYMBOL res 352 -112 R180
WINDOW 0 36 76 Left 2
WINDOW 3 36 40 Left 2
SYMATTR InstName R1
SYMATTR Value {wc(1k,tol,4)}
SYMBOL res 352 -320 R180
WINDOW 0 36 76 Left 2
WINDOW 3 36 40 Left 2
SYMATTR InstName R2
SYMATTR Value {wc(1k,tol,3)}
SYMBOL res 0 192 R90
WINDOW 0 0 56 VBottom 2
WINDOW 3 -58 44 VTop 2
SYMATTR InstName R3
SYMATTR Value {wc(2MEG,tol,5)}
SYMBOL cap -160 272 R180
WINDOW 0 39 36 Left 2
WINDOW 3 32 9 Left 2
SYMATTR InstName C1
SYMATTR Value {wc(0.1u,0.05,10)}
SYMBOL voltage -544 -400 R0
SYMATTR InstName V2
SYMATTR Value 3.3V
SYMBOL cktsym\\opamprails -80 -32 R0
SYMATTR InstName U1
SYMBOL res 176 192 R90
WINDOW 0 0 56 VBottom 2
WINDOW 3 31 50 VTop 2
SYMATTR InstName R4
SYMATTR Value {wc(2MEG,tol,6)}
SYMBOL res -816 -112 R0
SYMATTR InstName R7
SYMATTR Value {wc(1k,tol,2)}
SYMBOL res -816 -208 R0
SYMATTR InstName R6
SYMATTR Value {wc(1k,tol,1)}
SYMBOL res 352 192 R90
WINDOW 0 0 56 VBottom 2
WINDOW 3 -58 42 VTop 2
SYMATTR InstName R8
SYMATTR Value {wc(499k, tol, 7)}
SYMBOL res 544 192 R90
WINDOW 3 32 56 VTop 2
WINDOW 0 0 56 VBottom 2
SYMATTR Value {wc(49.9k, tol, 8)}
SYMATTR InstName R9
SYMBOL cap -32 -144 R0
SYMATTR InstName C2
SYMATTR Value {wc(1u,0.1,9)}
SYMBOL cap -496 -448 R0
WINDOW 0 23 11 Left 2
SYMATTR InstName C3
SYMATTR Value {wc(1u,0.1,0)}
SYMBOL cktsym\\opamprails -464 -64 R0
SYMATTR InstName U2
SYMBOL res 720 16 R0
SYMATTR InstName R5
SYMATTR Value 1k
SYMBOL LED 720 160 R0
WINDOW 3 43 65 Left 2
SYMATTR InstName D1
TEXT -856 400 Left 2 !.tran 0 60 55
TEXT -856 432 Left 2 !.func wc(nom,tol,index) if(run==numruns,nom,if(binary(run,index),nom*(1+tol),nom*(1-tol)))
TEXT -848 464 Left 2 !.func binary(run,index) floor(run/(2**index))-2*floor(run/(2**(index+1)))
TEXT -848 504 Left 2 !.step param run 0 2048 1
TEXT -840 544 Left 2 !.param numruns=2048
TEXT -840 592 Left 2 !.param tol=0.01
