Version 4
SHEET 1 880 680
WIRE 192 -288 192 -336
WIRE 192 -288 -176 -288
WIRE 192 -208 192 -288
WIRE 0 -160 -64 -160
WIRE -64 -112 -64 -160
WIRE -704 -96 -704 -112
WIRE -560 -96 -704 -96
WIRE -288 -64 -336 -64
WIRE -176 -64 -176 -288
WIRE 192 -32 192 -128
WIRE 192 -32 48 -32
WIRE 384 -32 192 -32
WIRE 384 0 384 -32
WIRE -560 80 -560 -32
WIRE -336 80 -336 -64
WIRE -336 80 -560 80
WIRE 384 144 384 80
WIRE -176 208 -176 0
WIRE -96 208 -176 208
WIRE -32 208 -96 208
WIRE 112 208 48 208
WIRE 192 208 192 -32
WIRE 384 240 384 208
WIRE -96 304 -96 272
FLAG -336 -480 5V
FLAG -336 -272 3.3V
FLAG -336 -192 0
FLAG -336 -400 -5V
FLAG 192 -416 1.65
FLAG -96 304 1.65
FLAG -64 48 0
FLAG -64 -160 3.3V
FLAG 0 -96 0
FLAG 384 240 0
FLAG -448 -144 3.3V
FLAG -288 -64 1.65
FLAG -704 -16 0
FLAG -704 -192 3.3V
FLAG -448 16 0
SYMBOL res 208 -112 R180
WINDOW 0 36 76 Left 2
WINDOW 3 36 40 Left 2
SYMATTR InstName R1
SYMATTR Value 1k
SYMBOL res 208 -320 R180
WINDOW 0 36 76 Left 2
WINDOW 3 36 40 Left 2
SYMATTR InstName R2
SYMATTR Value 1k
SYMBOL res 64 192 R90
WINDOW 0 0 56 VBottom 2
WINDOW 3 32 56 VTop 2
SYMATTR InstName R3
SYMATTR Value 499k
SYMBOL cap -80 272 R180
WINDOW 0 30 46 Left 2
WINDOW 3 24 8 Left 2
SYMATTR InstName C1
SYMATTR Value 1µ
SYMBOL voltage -336 -496 R0
SYMATTR InstName V1
SYMATTR Value 12V
SYMBOL voltage -336 -288 R0
SYMATTR InstName V2
SYMATTR Value 3.3V
SYMBOL cktsym\\opamprails -80 -32 R0
SYMATTR InstName U1
SYMBOL res 208 192 R90
WINDOW 0 0 56 VBottom 2
WINDOW 3 32 56 VTop 2
SYMATTR InstName R4
SYMATTR Value 1k
SYMBOL cap -16 -160 R0
SYMATTR InstName C2
SYMATTR Value 1µ
SYMBOL LED 368 144 R0
SYMATTR InstName D1
SYMATTR Value RED
SYMBOL res 368 -16 R0
SYMATTR InstName R7
SYMATTR Value 1k
SYMBOL cktsym\\opamprails -464 -64 R0
SYMATTR InstName U2
SYMBOL res -720 -112 R0
SYMATTR InstName R8
SYMATTR Value 1k
SYMBOL res -720 -208 R0
SYMATTR InstName R9
SYMATTR Value 1k
TEXT -472 200 Left 2 !.tran 0 23 20
TEXT -744 256 Left 2 !.model RED D(Is=3.3835E-20 N=1.803 Rs=3)
