Version 4
SHEET 1 880 680
WIRE -80 -176 -112 -176
WIRE -48 -176 -80 -176
WIRE 64 -176 32 -176
WIRE -80 -64 -80 -176
WIRE -48 -64 -80 -64
WIRE 64 -48 64 -176
WIRE 64 -48 16 -48
WIRE 160 -48 64 -48
WIRE -48 -32 -80 -32
WIRE 64 0 64 -48
WIRE -80 96 -80 -32
WIRE 64 96 64 80
WIRE 64 96 -80 96
WIRE 64 112 64 96
FLAG -336 -176 5V
FLAG -336 32 3.3V
FLAG -336 112 0
FLAG -336 -96 -5V
FLAG -16 -16 0
FLAG -528 16 1.65
FLAG -528 96 0
FLAG 64 192 1.65
FLAG -112 -240 1.65
FLAG -16 -80 3.3V
SYMBOL res 48 -16 R0
SYMATTR InstName R1
SYMATTR Value 100k
SYMBOL res 48 96 R0
SYMATTR InstName R2
SYMATTR Value 100k
SYMBOL res 48 -192 R90
WINDOW 0 0 56 VBottom 2
WINDOW 3 32 56 VTop 2
SYMATTR InstName R3
SYMATTR Value 499k
SYMBOL cap -128 -240 R0
WINDOW 0 27 13 Left 2
WINDOW 3 35 39 Left 2
SYMATTR InstName C1
SYMATTR Value 1µ
SYMBOL voltage -336 -192 R0
SYMATTR InstName V1
SYMATTR Value 12V
SYMBOL voltage -336 16 R0
SYMATTR InstName V2
SYMATTR Value 3.3V
SYMBOL OpAmps\\LT1012A -16 -112 R0
SYMATTR InstName U2
SYMBOL voltage -528 0 R0
SYMATTR InstName V3
SYMATTR Value 1.65
TEXT -472 200 Left 2 !.tran 0 15 13
